code/cases/bench/bench_shandong_change.raw
0,   100.00, 31, 0, 0, 50.00     / PSS(R)E-33.5    THU, DEC 28 2017  16:24
BENCHMARK MODEL BASED ON SHANDONG POWER GRID
SHANDONG UNIVERSITY, LI CHANGGANG/XU TAOYANG, 2017/12/21
     2,'Â³×ÞÏØ      ', 525.0000,1,  37,   1,   1,1.00076,  -0.2714,1.10000,0.90000,1.10000,0.90000
     3,'½òº£ºÓ      ',1050.0000,1,  37,   1,   1,0.99813,   1.1846,1.10000,0.90000,1.10000,0.90000
     4,'¼½ÐÏÌ¨UH    ',1050.0000,1,  37,   1,   1,1.00119,   0.4330,1.10000,0.90000,1.10000,0.90000
     5,'Ô¥×¤Âíµê    ',1050.0000,1,  37,   1,   1,0.98903,  -0.0283,1.10000,0.90000,1.10000,0.90000
     6,'Â³Èª³ÇÌØ    ',1050.0000,1,  37,   1,   1,0.99633,   1.1873,1.10000,0.90000,1.10000,0.90000
     7,'Â³ºÊÔóÌØ    ',1050.0000,1,  37,   1,   1,0.99343,  -1.4513,1.10000,0.90000,1.10000,0.90000
     8,'Â³Ôæ×¯ÌØ    ',1050.0000,1,  37,   1,   1,0.99921,   0.7937,1.10000,0.90000,1.10000,0.90000
     9,'Â³¸ßÏçÌØ    ',1050.0000,1,  37,   1,   1,1.00182,   4.7582,1.10000,0.90000,1.10000,0.90000
    10,'Â³²ýÀÖÌØ    ',1050.0000,1,  37,   1,   1,0.99632,   4.9114,1.10000,0.90000,1.10000,0.90000
    11,'¼½ÐÁ°²      ', 525.0000,1,  37,   1,   1,1.00109,   6.2747,1.10000,0.90000,1.10000,0.90000
    12,'Â³Èª³Ç      ', 525.0000,1,  37,   1,   1,0.99640,   1.2120,1.10000,0.90000,1.10000,0.90000
    13,'Â³¼ÃÄÏ      ', 525.0000,1,  37,   1,   1,0.98675,  -1.7439,1.10000,0.90000,1.10000,0.90000
    14,'Â³»ªµÂ      ', 525.0000,1,  37,   1,   1,0.99858,   3.0364,1.10000,0.90000,1.10000,0.90000
    15,'Â³ÁêÏØ      ', 525.0000,1,  37,   1,   1,0.99269,  -0.0166,1.10000,0.90000,1.10000,0.90000
    16,'Â³»ÝÃñ      ', 525.0000,1,  37,   1,   1,0.99644,   0.2806,1.10000,0.90000,1.10000,0.90000
    17,'Â³±´ÖÝ      ', 525.0000,1,  37,   1,   1,0.99367,   1.1146,1.10000,0.90000,1.10000,0.90000
    18,'Â³µÂÖÝ      ', 525.0000,1,  37,   1,   1,0.99213,  -0.5228,1.10000,0.90000,1.10000,0.90000
    19,'Â³²ñ¸®      ', 525.0000,1,  37,   1,   1,0.99440,   0.4940,1.10000,0.90000,1.10000,0.90000
    20,'Â³ÎÅÉØ      ', 525.0000,1,  37,   1,   1,0.99296,  -0.6235,1.10000,0.90000,1.10000,0.90000
    21,'Â³ÁÄ³Ç      ', 525.0000,1,  37,   1,   1,0.99626,   1.5300,1.10000,0.90000,1.10000,0.90000
    22,'Â³ÁÄ³§      ', 525.0000,1,  37,   1,   1,0.99784,   1.6198,1.10000,0.90000,1.10000,0.90000
    23,'Â³ÁÄ³ÇÄÏ    ', 525.0000,1,  37,   1,   1,0.99341,   0.5677,1.10000,0.90000,1.10000,0.90000
    24,'Â³¶«°¢      ', 525.0000,1,  37,   1,   1,0.99249,  -0.1504,1.10000,0.90000,1.10000,0.90000
    25,'Â³³¤Çå      ', 525.0000,1,  37,   1,   1,0.98964,  -1.1859,1.10000,0.90000,1.10000,0.90000
    26,'Â³ó´Áú      ', 525.0000,1,  37,   1,   1,0.98768,  -1.9058,1.10000,0.90000,1.10000,0.90000
    27,'Â³ÁúÉ½      ', 525.0000,1,  37,   1,   1,0.99129,  -1.4647,1.10000,0.90000,1.10000,0.90000
    28,'Â³ºÊÔó      ', 525.0000,1,  37,   1,   1,0.99368,  -1.4526,1.10000,0.90000,1.10000,0.90000
    29,'Â³Ôæ×¯      ', 525.0000,1,  37,   1,   1,0.99929,   0.7918,1.10000,0.90000,1.10000,0.90000
    30,'Â³Ôæ×¯ÊÐ    ', 525.0000,1,  37,   1,   1,0.99930,   0.5242,1.10000,0.90000,1.10000,0.90000
    31,'Â³¹ðÁê      ', 525.0000,1,  37,   1,   1,0.99397,  -1.7613,1.10000,0.90000,1.10000,0.90000
    32,'Â³Û©³Ç      ', 525.0000,1,  37,   1,   1,0.99632,  -2.8086,1.10000,0.90000,1.10000,0.90000
    33,'Â³á·×Ú      ', 525.0000,1,  37,   1,   1,0.99374,  -4.1168,1.10000,0.90000,1.10000,0.90000
    34,'Â³Ì©É½      ', 525.0000,1,  37,   1,   1,0.99679,  -3.1943,1.10000,0.90000,1.10000,0.90000
    35,'Â³×Í´¨      ', 525.0000,1,  37,   1,   1,0.99675,  -0.8797,1.10000,0.90000,1.10000,0.90000
    36,'Â³ÈåÁÖ      ', 525.0000,1,  37,   1,   1,0.99475,  -2.4831,1.10000,0.90000,1.10000,0.90000
    37,'Â³ÐÂÌ©      ', 525.0000,1,  37,   1,   1,0.99629,   0.4479,1.10000,0.90000,1.10000,0.90000
    38,'Â³Â³ÖÐ      ', 525.0000,1,  37,   1,   1,0.99317,   3.7658,1.10000,0.90000,1.10000,0.90000
    39,'Â³À³³§      ', 525.0000,1,  37,   1,   1,0.99822,   5.6599,1.10000,0.90000,1.10000,0.90000
    40,'Â³ÈóÔó      ', 525.0000,1,  37,   1,   1,0.99922,  -1.3432,1.10000,0.90000,1.10000,0.90000
    41,'Â³ÎÄÍ¤      ', 525.0000,1,  37,   1,   1,0.99601,  -2.4131,1.10000,0.90000,1.10000,0.90000
    42,'Â³½ðÏç      ', 525.0000,1,  37,   1,   1,0.99887,  -1.6183,1.10000,0.90000,1.10000,0.90000
    43,'Â³¼ÎÏé      ', 525.0000,1,  37,   1,   1,1.00023,  -1.1676,1.10000,0.90000,1.10000,0.90000
    44,'Â³ãëÉÏ      ', 525.0000,1,  37,   1,   1,0.99953,  -2.0345,1.10000,0.90000,1.10000,0.90000
    45,'Â³ÔËºÓ      ', 525.0000,1,  37,   1,   1,0.99995,  -1.7739,1.10000,0.90000,1.10000,0.90000
    46,'Â³á»³Ç      ', 525.0000,1,  37,   1,   1,1.00189,   0.8614,1.10000,0.90000,1.10000,0.90000
    48,'Â³ÒÊÄÏÌØ    ',1050.0000,1,  37,   1,   1,1.00479,   5.6010,1.10000,0.90000,1.10000,0.90000
    49,'Â³¸ßÏç      ', 525.0000,1,  37,   1,   1,1.00179,   4.7393,1.10000,0.90000,1.10000,0.90000
    50,'Â³ÈÕÕÕ      ', 525.0000,1,  37,   1,   1,0.99858,   4.6148,1.10000,0.90000,1.10000,0.90000
    51,'Â³¾Þ·å      ', 525.0000,1,  37,   1,   1,1.00001,   3.3675,1.10000,0.90000,1.10000,0.90000
    52,'Â³ÜìÄÏ      ', 525.0000,1,  37,   1,   1,1.00072,   2.9050,1.10000,0.90000,1.10000,0.90000
    53,'Â³À¼Áê      ', 525.0000,1,  37,   1,   1,1.00153,   1.2150,1.10000,0.90000,1.10000,0.90000
    54,'Â³ÒÊÃÉ      ', 525.0000,1,  37,   1,   1,1.00130,   2.2435,1.10000,0.90000,1.10000,0.90000
    55,'Â³ÒÊÄÏ      ', 525.0000,1,  37,   1,   1,1.00216,   5.7301,1.10000,0.90000,1.10000,0.90000
    56,'Â³ÃÉ³é      ', 525.0000,1,  37,   1,   1,1.00112,   3.3671,1.10000,0.90000,1.10000,0.90000
    57,'Â³¹ã¹ÌÌØ    ',1050.0000,1,  37,   1,   1,1.00171,   6.2757,1.10000,0.90000,1.10000,0.90000
    59,'Â³²ýÀÖ      ', 525.0000,1,  37,   1,   1,0.99610,   4.8876,1.10000,0.90000,1.10000,0.90000
    60,'Â³Î«·»      ', 525.0000,1,  37,   1,   1,0.98090,   5.0781,1.10000,0.90000,1.10000,0.90000
    61,'Â³¹ã¹Ì      ', 525.0000,1,  37,   1,   1,0.98574,   2.6311,1.10000,0.90000,1.10000,0.90000
    62,'Â³ÁÙ×Í      ', 525.0000,1,  37,   1,   1,0.98271,   1.9785,1.10000,0.90000,1.10000,0.90000
    63,'Â³×Í²©      ', 525.0000,1,  37,   1,   1,0.98166,  -0.0827,1.10000,0.90000,1.10000,0.90000
    64,'Â³Òæ¶¼      ', 525.0000,1,  37,   1,   1,0.98500,   2.0613,1.10000,0.90000,1.10000,0.90000
    65,'Â³¹ÜÖÙ      ', 525.0000,1,  37,   1,   1,0.99372,   0.2457,1.10000,0.90000,1.10000,0.90000
    66,'Â³ÇÇ¹Ù      ', 525.0000,1,  37,   1,   1,0.99518,   4.4065,1.10000,0.90000,1.10000,0.90000
    67,'Â³ÁÙëÔ      ', 525.0000,1,  37,   1,   1,0.99561,   4.0849,1.10000,0.90000,1.10000,0.90000
    68,'Â³ÃÜÖÝ      ', 525.0000,1,  37,   1,   1,0.99381,   5.2298,1.10000,0.90000,1.10000,0.90000
    69,'Â³ÀÅçð      ', 525.0000,1,  37,   1,   1,0.98965,   7.3660,1.10000,0.90000,1.10000,0.90000
    70,'Â³À³ÖÝ      ', 525.0000,1,  37,   1,   1,0.99654,  17.0274,1.10000,0.90000,1.10000,0.90000
    71,'Â³¹âÖÝ      ', 525.0000,1,  37,   1,   1,0.98720,  12.6052,1.10000,0.90000,1.10000,0.90000
    72,'Â³ÆÜÏ¼      ', 525.0000,1,  37,   1,   1,0.98316,  13.2113,1.10000,0.90000,1.10000,0.90000
    73,'Â³Ä²Æ½      ', 525.0000,1,  37,   1,   1,0.98741,  14.1755,1.10000,0.90000,1.10000,0.90000
    74,'Â³À¥áÎ      ', 525.0000,1,  37,   1,   1,0.99425,  17.0617,1.10000,0.90000,1.10000,0.90000
    75,'Â³³éÐî      ', 525.0000,1,  37,   1,   1,0.99635,  17.7096,1.10000,0.90000,1.10000,0.90000
    76,'Â³´óÔó      ', 525.0000,1,  37,   1,   1,0.98219,  12.1931,1.10000,0.90000,1.10000,0.90000
    77,'Â³À³Ñô      ', 525.0000,1,  37,   1,   1,0.97839,  16.1049,1.10000,0.90000,1.10000,0.90000
    78,'Â³º£Ñô      ', 525.0000,1,  37,   1,   1,0.98834,  23.0054,1.10000,0.90000,1.10000,0.90000
    79,'Â³¼´Ä«      ', 525.0000,1,  37,   1,   1,0.97780,  14.7424,1.10000,0.90000,1.10000,0.90000
    80,'Â³áÀÉ½      ', 525.0000,1,  37,   1,   1,0.97914,  11.8907,1.10000,0.90000,1.10000,0.90000
    81,'Â³½º¶«      ', 525.0000,1,  37,   1,   1,0.98513,  10.9449,1.10000,0.90000,1.10000,0.90000
    82,'Â³¹ÙÍ¤      ', 525.0000,1,  37,   1,   1,0.98845,   6.8389,1.10000,0.90000,1.10000,0.90000
    83,'¼½»Ææè      ', 525.0000,1,  37,   1,   1,1.00034,   7.2931,1.10000,0.90000,1.10000,0.90000
    84,'Â³±õÖÝ      ', 525.0000,1,  37,   1,   1,0.99553,   2.5097,1.10000,0.90000,1.10000,0.90000
    85,'Â³¸»¹ú      ', 525.0000,1,  37,   1,   1,0.99409,   1.8950,1.10000,0.90000,1.10000,0.90000
    86,'Â³º£¿Ú      ', 525.0000,1,  37,   1,   1,0.99426,   2.4073,1.10000,0.90000,1.10000,0.90000
    87,'Â³¶«µç      ', 525.0000,1,  37,   1,   1,0.99809,   3.2623,1.10000,0.90000,1.10000,0.90000
    88,'Â³¿Ñ¶«      ', 525.0000,1,  37,   1,   1,0.99563,   2.5212,1.10000,0.90000,1.10000,0.90000
    89,'Â³ÓÍ³Ç      ', 525.0000,1,  37,   1,   1,0.99538,   3.1243,1.10000,0.90000,1.10000,0.90000
    90,'Â³¸ßÇà      ', 525.0000,1,  37,   1,   1,0.99183,   1.0289,1.10000,0.90000,1.10000,0.90000
    91,'Â³²©³§      ', 525.0000,1,  37,   1,   1,0.99926,   3.5024,1.10000,0.90000,1.10000,0.90000
    92,'Â³ÊÙ¹â      ', 525.0000,1,  37,   1,   1,0.98792,   7.4026,1.10000,0.90000,1.10000,0.90000
    93,'Â³ÊÙµç      ', 525.0000,1,  37,   1,   1,0.99559,   9.1275,1.10000,0.90000,1.10000,0.90000
    94,'ÄþÒø´¨»»    ', 345.0000,1,  64,   1,   1,0.98092,  -2.3371,1.10000,0.90000,1.10000,0.90000
   102,'Â³×ÞÏØG     ',  20.0000,3,  37,   1,   1,1.00000,   0.0000,1.10000,0.90000,1.10000,0.90000
   104,'¼½Ê¯¼Ò×¯    ',  20.0000,2,  37,   1,   1,1.00000,   0.7763,1.10000,0.90000,1.10000,0.90000
   105,'¹ú×¤ÂíG     ',  20.0000,2,  37,   1,   1,1.00000,   0.3192,1.10000,0.90000,1.10000,0.90000
   111,'¼½ÐÁ°²G     ',  20.0000,2,  37,   1,   1,1.00000,   7.1333,1.10000,0.90000,1.10000,0.90000
   112,'Â³Èª³ÇG     ',  20.0000,2,  37,   1,   1,1.00000,   3.8005,1.10000,0.90000,1.10000,0.90000
   114,'Â³»ªµÂG     ',  20.0000,2,  37,   1,   1,1.00000,   4.4709,1.10000,0.90000,1.10000,0.90000
   122,'Â³ÁÄ³§G     ',  20.0000,2,  37,   1,   1,1.00000,   2.3663,1.10000,0.90000,1.10000,0.90000
   128,'¹úºÊÔóG     ',  20.0000,2,  37,   1,   1,1.00000,  -0.8760,1.10000,0.90000,1.10000,0.90000
   129,'¹úÔæ×¯G     ',  20.0000,2,  37,   1,   1,1.00000,   1.3652,1.10000,0.90000,1.10000,0.90000
   139,'Â³À³Îß³§    ',  20.0000,2,  37,   1,   1,1.00000,   6.8080,1.10000,0.90000,1.10000,0.90000
   140,'Â³ÈóÔóG     ',  20.0000,2,  37,   1,   1,1.00000,  -0.6035,1.10000,0.90000,1.10000,0.90000
   143,'Â³¼ÎÏéG     ',  20.0000,2,  37,   1,   1,1.00000,  -0.7896,1.10000,0.90000,1.10000,0.90000
   145,'Â³ÔËºÓG     ',  20.0000,2,  37,   1,   1,1.00000,  -1.3958,1.10000,0.90000,1.10000,0.90000
   156,'Â³ÃÉ³éG     ',  13.0000,2,  37,   1,   1,1.00000,   4.0539,1.10000,0.90000,1.10000,0.90000
   170,'Â³À³ÖÝG     ',  20.0000,2,  37,   1,   1,1.00000,  18.8101,1.10000,0.90000,1.10000,0.90000
   175,'Â³³éÐîG     ',  13.0000,2,  37,   1,   1,1.00000,  18.7447,1.10000,0.90000,1.10000,0.90000
   178,'Â³º£ÑôG     ',  20.0000,2,  37,   1,   1,1.00000,  28.8124,1.10000,0.90000,1.10000,0.90000
   183,'¼½»ÆæèG     ',  20.0000,2,  37,   1,   1,1.00000,   8.1523,1.10000,0.90000,1.10000,0.90000
   187,'Â³¶«µçG     ',  20.0000,2,  37,   1,   1,1.00000,   3.8363,1.10000,0.90000,1.10000,0.90000
   191,'Â³²©³§G     ',  20.0000,2,  37,   1,   1,1.00000,   4.0758,1.10000,0.90000,1.10000,0.90000
   193,'Â³ÊÙµçG     ',  20.0000,2,  37,   1,   1,1.00000,  10.2786,1.10000,0.90000,1.10000,0.90000
   194,'ÄþÒø´¨G     ',  20.0000,3,  64,   1,   1,1.00000,   0.0000,1.10000,0.90000,1.10000,0.90000
   201,'ÃÉÔúÂ³ÌØ    ', 525.0000,1,   1,   1,   1,0.99509,  -6.9263,1.10000,0.90000,1.10000,0.90000
   202,'ÃÉÃÉ¶«G     ',  20.0000,3,   1,   1,   1,1.00000,   0.0000,1.10000,0.90000,1.10000,0.90000
   301,'ÃÉÒÁ¿ËÕÑ    ', 800.0000,1,   1,   1,   1,1.00589,  -6.8515,1.10000,0.90000,1.10000,0.90000
   302,'ÃÉÉÏº£Ãí    ',  20.0000,3,   1,   1,   1,1.00000,   0.0000,1.10000,0.90000,1.10000,0.90000
   311,'Â³µÂÖÝ·¢µç  ',  20.0000,2,  37,   1,   1,1.00000,   7.1333,1.10000,0.90000,1.10000,0.90000
   312,'Â³¸ßÇà·¢µç  ',  20.0000,2,  37,   1,   1,1.00000,   7.1333,1.10000,0.90000,1.10000,0.90000
   313,'Â³¼ÃÄÏ·¢µç  ',  20.0000,2,  37,   1,   1,1.00000,   7.1333,1.10000,0.90000,1.10000,0.90000
   314,'Â³¾Þ·å·¢µç  ',  20.0000,2,  37,   1,   1,1.00000,   7.1333,1.10000,0.90000,1.10000,0.90000
   315,'Â³À¥áÎ·¢µç  ',  20.0000,2,  37,   1,   1,1.00000,   7.1333,1.10000,0.90000,1.10000,0.90000
   316,'Â³À¼Áê·¢µç  ',  20.0000,2,  37,   1,   1,1.00000,   7.1333,1.10000,0.90000,1.10000,0.90000
   317,'Â³ÀÅçð·¢µç  ',  20.0000,2,  37,   1,   1,1.00000,   7.1333,1.10000,0.90000,1.10000,0.90000
   318,'Â³áÀÉ½·¢µç  ',  20.0000,2,  37,   1,   1,1.00000,   7.1333,1.10000,0.90000,1.10000,0.90000
   319,'Â³ÁÄ³Ç·¢µç  ',  20.0000,2,  37,   1,   1,1.00000,   7.1333,1.10000,0.90000,1.10000,0.90000
   320,'Â³ÁÙ×Í·¢µç  ',  20.0000,2,  37,   1,   1,1.00000,   7.1333,1.10000,0.90000,1.10000,0.90000
   321,'Â³Â³ÖÐ·¢µç  ',  20.0000,2,  37,   1,   1,1.00000,   7.1333,1.10000,0.90000,1.10000,0.90000
   322,'Â³ÆÜÏ¼·¢µç  ',  20.0000,2,  37,   1,   1,1.00000,   7.1333,1.10000,0.90000,1.10000,0.90000
   323,'Â³ÈÕÕÕ·¢µç  ',  20.0000,2,  37,   1,   1,1.00000,   7.1333,1.10000,0.90000,1.10000,0.90000
   324,'Â³ÊÙ¹â·¢µç  ',  20.0000,2,  37,   1,   1,1.00000,   7.1333,1.10000,0.90000,1.10000,0.90000
   325,'Â³Ì©É½·¢µç  ',  20.0000,2,  37,   1,   1,1.00000,   7.1333,1.10000,0.90000,1.10000,0.90000
0 / END OF BUS DATA, BEGIN LOAD DATA
     6,'1 ',1,  37,   1,  3000.000,  1100.000,     0.000,     0.000,     0.000,     0.000,   1,0,0
     7,'1 ',1,  37,   1,  3000.000,   700.000,     0.000,     0.000,     0.000,     0.000,   1,0,0
     8,'1 ',1,  37,   1,  1900.000,   500.000,     0.000,     0.000,     0.000,     0.000,   1,0,0
    13,'1 ',1,  37,   1,   729.700,    59.300,     0.000,     0.000,     0.000,     0.000,   1,0,0
    15,'1 ',1,  37,   1,  1065.000,   104.000,     0.000,     0.000,     0.000,     0.000,   1,0,0
    16,'1 ',1,  37,   1,   959.800,   106.200,     0.000,     0.000,     0.000,     0.000,   1,0,0
    17,'1 ',1,  37,   1,   379.200,   152.000,     0.000,     0.000,     0.000,     0.000,   1,0,0
    18,'1 ',1,  37,   1,   841.000,   105.800,     0.000,     0.000,     0.000,     0.000,   1,0,0
    19,'1 ',1,  37,   1,   372.900,   109.900,     0.000,     0.000,     0.000,     0.000,   1,0,0
    20,'1 ',1,  37,   1,  1235.000,   226.200,     0.000,     0.000,     0.000,     0.000,   1,0,0
    21,'1 ',1,  37,   1,   373.300,   197.800,     0.000,     0.000,     0.000,     0.000,   1,0,0
    23,'1 ',1,  37,   1,   405.700,   267.700,     0.000,     0.000,     0.000,     0.000,   1,0,0
    24,'1 ',1,  37,   1,   411.600,   160.000,     0.000,     0.000,     0.000,     0.000,   1,0,0
    25,'1 ',1,  37,   1,   540.200,   171.300,     0.000,     0.000,     0.000,     0.000,   1,0,0
    26,'1 ',1,  37,   1,   881.400,   134.100,     0.000,     0.000,     0.000,     0.000,   1,0,0
    27,'1 ',1,  37,   1,  1017.000,   149.300,     0.000,     0.000,     0.000,     0.000,   1,0,0
    30,'1 ',1,  37,   1,   314.900,   135.800,     0.000,     0.000,     0.000,     0.000,   1,0,0
    31,'1 ',1,  37,   1,   620.500,   182.800,     0.000,     0.000,     0.000,     0.000,   1,0,0
    32,'1 ',1,  37,   1,  1095.000,   263.400,     0.000,     0.000,     0.000,     0.000,   1,0,0
    33,'1 ',1,  37,   1,   732.700,   170.100,     0.000,     0.000,     0.000,     0.000,   1,0,0
    34,'1 ',1,  37,   1,  1298.000,   244.400,     0.000,     0.000,     0.000,     0.000,   1,0,0
    35,'1 ',1,  37,   1,   705.500,   110.700,     0.000,     0.000,     0.000,     0.000,   1,0,0
    36,'1 ',1,  37,   1,   636.000,   156.400,     0.000,     0.000,     0.000,     0.000,   1,0,0
    37,'1 ',1,  37,   1,   844.500,   193.100,     0.000,     0.000,     0.000,     0.000,   1,0,0
    38,'1 ',1,  37,   1,  1648.000,   461.400,     0.000,     0.000,     0.000,     0.000,   1,0,0
    41,'1 ',1,  37,   1,   849.000,   203.600,     0.000,     0.000,     0.000,     0.000,   1,0,0
    42,'1 ',1,  37,   1,   763.200,   160.600,     0.000,     0.000,     0.000,     0.000,   1,0,0
    43,'1 ',1,  37,   1,    36.000,    12.000,     0.000,     0.000,     0.000,     0.000,   1,0,0
    44,'1 ',1,  37,   1,   413.000,   137.900,     0.000,     0.000,     0.000,     0.000,   1,0,0
    46,'1 ',1,  37,   1,   161.400,    63.400,     0.000,     0.000,     0.000,     0.000,   1,0,0
    50,'1 ',1,  37,   1,   821.000,   165.600,     0.000,     0.000,     0.000,     0.000,   1,0,0
    50,'2 ',1,  37,   1,   155.600,    46.400,     0.000,     0.000,     0.000,     0.000,   1,0,0
    51,'1 ',1,  37,   1,   571.200,   188.300,     0.000,     0.000,     0.000,     0.000,   1,0,0
    52,'1 ',1,  37,   1,   843.100,   198.600,     0.000,     0.000,     0.000,     0.000,   1,0,0
    53,'1 ',1,  37,   1,  1022.000,   175.200,     0.000,     0.000,     0.000,     0.000,   1,0,0
    54,'1 ',1,  37,   1,  1399.000,   172.300,     0.000,     0.000,     0.000,     0.000,   1,0,0
    55,'1 ',1,  37,   1,  1122.000,   378.200,     0.000,     0.000,     0.000,     0.000,   1,0,0
    59,'1 ',1,  37,   1,  1289.000,   305.600,     0.000,     0.000,     0.000,     0.000,   1,0,0
    60,'1 ',1,  37,   1,   846.300,   270.400,     0.000,     0.000,     0.000,     0.000,   1,0,0
    62,'1 ',1,  37,   1,  1226.000,   379.200,     0.000,     0.000,     0.000,     0.000,   1,0,0
    63,'1 ',1,  37,   1,  1056.000,   252.300,     0.000,     0.000,     0.000,     0.000,   1,0,0
    64,'1 ',1,  37,   1,  1461.000,   243.300,     0.000,     0.000,     0.000,     0.000,   1,0,0
    65,'1 ',1,  37,   1,   454.300,    15.700,     0.000,     0.000,     0.000,     0.000,   1,0,0
    66,'1 ',1,  37,   1,   592.800,    11.600,     0.000,     0.000,     0.000,     0.000,   1,0,0
    67,'1 ',1,  37,   1,   534.900,    58.400,     0.000,     0.000,     0.000,     0.000,   1,0,0
    68,'1 ',1,  37,   1,   912.600,   188.400,     0.000,     0.000,     0.000,     0.000,   1,0,0
    69,'1 ',1,  37,   1,   526.900,   155.000,     0.000,     0.000,     0.000,     0.000,   1,0,0
    71,'1 ',1,  37,   1,  1229.000,   330.900,     0.000,     0.000,     0.000,     0.000,   1,0,0
    72,'1 ',1,  37,   1,  1025.000,   205.000,     0.000,     0.000,     0.000,     0.000,   1,0,0
    73,'1 ',1,  37,   1,   927.900,   113.000,     0.000,     0.000,     0.000,     0.000,   1,0,0
    74,'1 ',1,  37,   1,   253.100,   139.400,     0.000,     0.000,     0.000,     0.000,   1,0,0
    75,'1 ',1,  37,   1,   126.000,   165.600,     0.000,     0.000,     0.000,     0.000,   1,0,0
    76,'1 ',1,  37,   1,   886.400,   141.700,     0.000,     0.000,     0.000,     0.000,   1,0,0
    77,'1 ',1,  37,   1,  1825.000,   367.100,     0.000,     0.000,     0.000,     0.000,   1,0,0
    79,'1 ',1,  37,   1,   549.300,   120.300,     0.000,     0.000,     0.000,     0.000,   1,0,0
    80,'1 ',1,  37,   1,  2107.000,   197.500,     0.000,     0.000,     0.000,     0.000,   1,0,0
    81,'1 ',1,  37,   1,   990.000,   163.600,     0.000,     0.000,     0.000,     0.000,   1,0,0
    82,'1 ',1,  37,   1,   350.400,   104.800,     0.000,     0.000,     0.000,     0.000,   1,0,0
    84,'1 ',1,  37,   1,   786.900,   220.100,     0.000,     0.000,     0.000,     0.000,   1,0,0
    85,'1 ',1,  37,   1,   566.200,   118.800,     0.000,     0.000,     0.000,     0.000,   1,0,0
    86,'1 ',1,  37,   1,   903.300,   378.300,     0.000,     0.000,     0.000,     0.000,   1,0,0
    88,'1 ',1,  37,   1,   423.300,    92.100,     0.000,     0.000,     0.000,     0.000,   1,0,0
    89,'1 ',1,  37,   1,   568.000,   135.000,     0.000,     0.000,     0.000,     0.000,   1,0,0
    90,'1 ',1,  37,   1,  1409.000,   243.900,     0.000,     0.000,     0.000,     0.000,   1,0,0
    92,'1 ',1,  37,   1,  1887.000,   597.600,     0.000,     0.000,     0.000,     0.000,   1,0,0
0 / END OF LOAD DATA, BEGIN FIXED SHUNT DATA
     4,'1 ',1,     0.000,  -200.000
     9,'1 ',1,     0.000,  -500.000
    10,'1 ',1,     0.000, -1100.000
    48,'1 ',1,     0.000,  2000.000
    55,'1 ',1,     0.000,  2000.000
    57,'1 ',1,     0.000,  2000.000
    61,'1 ',1,     0.000,  2000.000
    81,'1 ',1,     0.000,  2000.000
   201,'1 ',1,     0.000,  4000.000
   301,'1 ',1,     0.000,  4000.000
0 / END OF FIXED SHUNT DATA, BEGIN GENERATOR DATA
   102,'1 ',   474.005,   -74.886,  9999.000, -9999.000,1.00000,     0,  1120.000, 0.00000E+0, 1.50000E-1, 0.00000E+0, 0.00000E+0,1.00000,1,  100.0,  9999.000,     0.000,   1,1.0000
   104,'1 ',   600.000,  -117.423,  9999.000, -9999.000,1.00000,     0,   744.000, 0.00000E+0, 1.50000E-1, 0.00000E+0, 0.00000E+0,1.00000,1,  100.0,  9999.000,     0.000,   1,1.0000
   105,'1 ',   600.000,  1098.938,  9999.000, -9999.000,1.00000,     0,   744.000, 0.00000E+0, 1.50000E-1, 0.00000E+0, 0.00000E+0,1.00000,1,  100.0,  9999.000,     0.000,   1,1.0000
   111,'1 ',  1500.000,   -97.940,  9999.000, -9999.000,1.00000,     0,  1700.000, 0.00000E+0, 1.50000E-1, 0.00000E+0, 0.00000E+0,1.00000,1,  100.0,  9999.000,     0.000,   1,1.0000
   112,'1 ',  1500.000,   461.368,  9999.000, -9999.000,1.00000,     0,  1700.000, 0.00000E+0, 1.50000E-1, 0.00000E+0, 0.00000E+0,1.00000,1,  100.0,  9999.000,     0.000,   1,1.0000
   114,'1 ',  1500.000,   172.853,  9999.000, -9999.000,1.00000,     0,  2700.000, 0.00000E+0, 1.50000E-1, 0.00000E+0, 0.00000E+0,1.00000,1,  100.0,  9999.000,     0.000,   1,1.0000
   122,'1 ',  1300.000,   224.936,  9999.000, -9999.000,1.00000,     0,  1500.000, 0.00000E+0, 1.50000E-1, 0.00000E+0, 0.00000E+0,1.00000,1,  100.0,  9999.000,     0.000,   1,1.0000
   128,'1 ',  1000.000,   637.416,  9999.000, -9999.000,1.00000,     0,  1120.000, 0.00000E+0, 1.50000E-1, 0.00000E+0, 0.00000E+0,1.00000,1,  100.0,  9999.000,     0.000,   1,1.0000
   129,'1 ',  1000.000,    76.099,  9999.000, -9999.000,1.00000,     0,  1120.000, 0.00000E+0, 1.50000E-1, 0.00000E+0, 0.00000E+0,1.00000,1,  100.0,  9999.000,     0.000,   1,1.0000
   139,'1 ',  1500.000,   198.320,  9999.000, -9999.000,1.00000,     0,  2240.000, 0.00000E+0, 1.50000E-1, 0.00000E+0, 0.00000E+0,1.00000,1,  100.0,  9999.000,     0.000,   1,1.0000
   140,'1 ',  1290.000,    86.563,  9999.000, -9999.000,1.00000,     0,  1500.000, 0.00000E+0, 1.50000E-1, 0.00000E+0, 0.00000E+0,1.00000,1,  100.0,  9999.000,     0.000,   1,1.0000
   143,'1 ',   660.000,   -21.164,  9999.000, -9999.000,1.00000,     0,  1000.000, 0.00000E+0, 1.50000E-1, 0.00000E+0, 0.00000E+0,1.00000,1,  100.0,  9999.000,     0.000,   1,1.0000
   145,'1 ',   660.000,     7.082,  9999.000, -9999.000,1.00000,     0,   744.000, 0.00000E+0, 1.50000E-1, 0.00000E+0, 0.00000E+0,1.00000,1,  100.0,  9999.000,     0.000,   1,1.0000
   156,'1 ',  1200.000,  -104.401,  9999.000, -9999.000,1.00000,     0,  1500.000, 0.00000E+0, 1.50000E-1, 0.00000E+0, 0.00000E+0,1.00000,1,  100.0,  9999.000,     0.000,   1,1.0000
   170,'1 ',  1500.000,   394.711,  9999.000, -9999.000,1.00000,     0,  1700.000, 0.00000E+0, 1.50000E-1, 0.00000E+0, 0.00000E+0,1.00000,1,  100.0,  9999.000,     0.000,   1,1.0000
   175,'1 ',  1800.000,   381.300,  9999.000, -9999.000,1.00000,     0,  2000.000, 0.00000E+0, 1.50000E-1, 0.00000E+0, 0.00000E+0,1.00000,1,  100.0,  9999.000,     0.000,   1,1.0000
   178,'1 ',  1520.000,  1672.750,  9999.000, -9999.000,1.00000,     0,  1800.000, 0.00000E+0, 1.50000E-1, 0.00000E+0, 0.00000E+0,1.00000,1,  100.0,  9999.000,     0.000,   1,1.0000
   183,'1 ',  1500.000,   -22.915,  9999.000, -9999.000,1.00000,     0,  1700.000, 0.00000E+0, 1.50000E-1, 0.00000E+0, 0.00000E+0,1.00000,1,  100.0,  9999.000,     0.000,   1,1.0000
   187,'1 ',  1000.000,   195.673,  9999.000, -9999.000,1.00000,     0,  1120.000, 0.00000E+0, 1.50000E-1, 0.00000E+0, 0.00000E+0,1.00000,1,  100.0,  9999.000,     0.000,   1,1.0000
   191,'1 ',  1000.000,    78.846,  9999.000, -9999.000,1.00000,     0,  1120.000, 0.00000E+0, 1.50000E-1, 0.00000E+0, 0.00000E+0,1.00000,1,  100.0,  9999.000, -9999.000,   1,1.0000
   193,'1 ',  2000.000,   461.429,  9999.000, -9999.000,1.00000,     0,  2240.000, 0.00000E+0, 1.50000E-1, 0.00000E+0, 0.00000E+0,1.00000,1,  100.0,  9999.000,     0.000,   1,1.0000
   194,'1 ',  4000.000,  1989.618,  9999.000, -9999.000,1.00000,     0,  4480.000, 0.00000E+0, 1.50000E-1, 0.00000E+0, 0.00000E+0,1.00000,1,  100.0,  9999.000,     0.000,   1,1.0000
   202,'1 ',  8000.020,   811.732,  9999.000, -9999.000,1.00000,     0,  8960.000, 0.00000E+0, 1.50000E-1, 0.00000E+0, 0.00000E+0,1.00000,1,  100.0,  9999.000, -9999.000,   1,1.0000
   302,'1 ',  7999.998,    86.207,  9999.000, -9999.000,1.00000,     0,  8960.000, 0.00000E+0, 1.50000E-1, 0.00000E+0, 0.00000E+0,1.00000,1,  100.0,  9999.000, -9999.000,   1,1.0000
   311,'1 ',  1350.000,   -97.940,  9999.000, -9999.000,1.00000,     0,  1700.000, 0.00000E+0, 1.50000E-1, 0.00000E+0, 0.00000E+0,1.00000,1,  100.0,  9999.000,     0.000,   1,1.0000
   312,'1 ',   500.000,  -117.423,  9999.000, -9999.000,1.00000,     0,   744.000, 0.00000E+0, 1.50000E-1, 0.00000E+0, 0.00000E+0,1.00000,1,  100.0,  9999.000,     0.000,   1,1.0000
   313,'1 ',  1655.000,   -97.940,  9999.000, -9999.000,1.00000,     0,  1700.000, 0.00000E+0, 1.50000E-1, 0.00000E+0, 0.00000E+0,1.00000,1,  100.0,  9999.000,     0.000,   1,1.0000
   314,'1 ',  1200.000,   -97.940,  9999.000, -9999.000,1.00000,     0,  1700.000, 0.00000E+0, 1.50000E-1, 0.00000E+0, 0.00000E+0,1.00000,1,  100.0,  9999.000,     0.000,   1,1.0000
   315,'1 ',   640.000,  -117.423,  9999.000, -9999.000,1.00000,     0,   744.000, 0.00000E+0, 1.50000E-1, 0.00000E+0, 0.00000E+0,1.00000,1,  100.0,  9999.000,     0.000,   1,1.0000
   316,'1 ',   570.000,  -117.423,  9999.000, -9999.000,1.00000,     0,   744.000, 0.00000E+0, 1.50000E-1, 0.00000E+0, 0.00000E+0,1.00000,1,  100.0,  9999.000,     0.000,   1,1.0000
   317,'1 ',   895.000,   637.416,  9999.000, -9999.000,1.00000,     0,  1120.000, 0.00000E+0, 1.50000E-1, 0.00000E+0, 0.00000E+0,1.00000,1,  100.0,  9999.000,     0.000,   1,1.0000
   318,'1 ',   940.000,   637.416,  9999.000, -9999.000,1.00000,     0,  1120.000, 0.00000E+0, 1.50000E-1, 0.00000E+0, 0.00000E+0,1.00000,1,  100.0,  9999.000,     0.000,   1,1.0000
   319,'1 ',  1500.000,   -97.940,  9999.000, -9999.000,1.00000,     0,  1700.000, 0.00000E+0, 1.50000E-1, 0.00000E+0, 0.00000E+0,1.00000,1,  100.0,  9999.000,     0.000,   1,1.0000
   320,'1 ',   870.000,   637.416,  9999.000, -9999.000,1.00000,     0,  1120.000, 0.00000E+0, 1.50000E-1, 0.00000E+0, 0.00000E+0,1.00000,1,  100.0,  9999.000,     0.000,   1,1.0000
   321,'1 ',   660.000,   637.416,  9999.000, -9999.000,1.00000,     0,  1120.000, 0.00000E+0, 1.50000E-1, 0.00000E+0, 0.00000E+0,1.00000,1,  100.0,  9999.000,     0.000,   1,1.0000
   322,'1 ',  1500.000,   -97.940,  9999.000, -9999.000,1.00000,     0,  1700.000, 0.00000E+0, 1.50000E-1, 0.00000E+0, 0.00000E+0,1.00000,1,  100.0,  9999.000,     0.000,   1,1.0000
   323,'1 ',  1000.000,   637.416,  9999.000, -9999.000,1.00000,     0,  1120.000, 0.00000E+0, 1.50000E-1, 0.00000E+0, 0.00000E+0,1.00000,1,  100.0,  9999.000,     0.000,   1,1.0000
   324,'1 ',   600.000,  -117.423,  9999.000, -9999.000,1.00000,     0,   744.000, 0.00000E+0, 1.50000E-1, 0.00000E+0, 0.00000E+0,1.00000,1,  100.0,  9999.000,     0.000,   1,1.0000
   325,'1 ',   700.000,   637.416,  9999.000, -9999.000,1.00000,     0,  1120.000, 0.00000E+0, 1.50000E-1, 0.00000E+0, 0.00000E+0,1.00000,1,  100.0,  9999.000,     0.000,   1,1.0000
0 / END OF GENERATOR DATA, BEGIN BRANCH DATA
     2,    35,'1 ', 1.99000E-3, 1.95100E-2,   2.20900,    0.00,    0.00,    0.00,  0.00000,  0.00000,  0.00000,  0.00000,1,1,   1.00,   1,0.5000,   1,0.5000
     2,    36,'1 ', 3.30000E-4, 4.59000E-3,   0.48706, 3106.26,    0.00,    0.00,  0.00000,  0.00000,  0.00000,  0.00000,1,1,  45.00,   1,0.5000,   1,0.5000
     2,    37,'1 ', 5.20000E-4, 8.21000E-3,   0.93748, 3106.26,    0.00,    0.00,  0.00000,  0.00000,  0.00000,  0.00000,1,2,  81.00,   1,0.5000,   1,0.5000
     2,    54,'1 ', 1.12000E-3, 1.58000E-2,   1.67768, 3106.26,    0.00,    0.00,  0.00000,  0.00000,  0.00000,  0.00000,1,1, 155.00,   1,0.5000,   1,0.5000
     3,     6,'1 ', 1.00000E-4, 3.79000E-3,   8.17960,17269.90,    0.00,    0.00,  0.00000, -7.23200,  0.00000,  0.00000,1,2, 164.00,   1,0.5000,   1,0.5000
     3,     6,'2 ', 1.00000E-4, 3.79000E-3,   8.17960,17269.90,    0.00,    0.00,  0.00000,  0.00000,  0.00000, -7.23200,1,2, 164.00,   1,0.5000,   1,0.5000
     4,     6,'1 ', 1.20000E-4, 4.62000E-3,   9.97500,17269.90,    0.00,    0.00,  0.00000, -9.26100,  0.00000,  0.00000,1,1, 200.00,   1,0.5000,   1,0.5000
     4,     6,'2 ', 1.20000E-4, 4.62000E-3,   9.97500,17269.90,    0.00,    0.00,  0.00000,  0.00000,  0.00000, -9.26100,1,1, 200.00,   1,0.5000,   1,0.5000
     4,     7,'1 ', 1.50000E-4, 5.66000E-3,  12.21960,17269.90,    0.00,    0.00,  0.00000,  0.00000,  0.00000, -4.81800,1,1, 245.00,   1,0.5000,   1,0.5000
     4,     7,'2 ', 1.50000E-4, 5.66000E-3,  12.21960,17269.90,    0.00,    0.00,  0.00000, -4.81800,  0.00000,  0.00000,1,1, 245.00,   1,0.5000,   1,0.5000
     5,     7,'1 ', 2.20000E-4, 8.09000E-3,   1.45638,17269.90,    0.00,    0.00,  0.00000, -6.86000,  0.00000, -6.86000,1,2,   0.80,   1,0.5000,   1,0.5000
     5,     7,'2 ', 2.20000E-4, 8.09000E-3,   1.45638,17269.90,    0.00,    0.00,  0.00000, -6.86000,  0.00000, -6.86000,1,2,   0.80,   1,0.5000,   1,0.5000
     6,     8,'1 ', 1.60000E-4, 6.12000E-3,  13.21700,17269.90,    0.00,    0.00,  0.00000, -5.46000,  0.00000, -5.46000,1,1, 265.00,   1,0.5000,   1,0.5000
     6,     8,'2 ', 1.60000E-4, 6.12000E-3,  13.21700,17269.90,    0.00,    0.00,  0.00000, -5.46000,  0.00000, -5.46000,1,1, 265.00,   1,0.5000,   1,0.5000
     6,    10,'1 ', 1.30000E-4, 5.15000E-3,  11.12220,17269.90,    0.00,    0.00,  0.00000, -4.37000,  0.00000, -4.37000,1,1, 223.00,   1,0.5000,   1,0.5000
     6,    10,'2 ', 1.30000E-4, 5.15000E-3,  11.12220,17269.90,    0.00,    0.00,  0.00000, -4.37000,  0.00000, -4.37000,1,1, 223.00,   1,0.5000,   1,0.5000
     7,     8,'1 ', 1.80000E-4, 5.96000E-3,  12.33280,14782.00,    0.00,    0.00,  0.00000, -5.06000,  0.00000, -5.06000,1,1, 249.00,   1,0.5000,   1,0.5000
     7,     8,'2 ', 1.80000E-4, 5.96000E-3,  12.33280,14782.00,    0.00,    0.00,  0.00000, -5.06000,  0.00000, -5.06000,1,1, 249.00,   1,0.5000,   1,0.5000
     8,     9,'1 ', 1.30000E-4, 4.48000E-3,   9.26200,14782.00,    0.00,    0.00,  0.00000, -3.80000,  0.00000, -3.80000,1,1, 187.00,   1,0.5000,   1,0.5000
     8,     9,'2 ', 1.30000E-4, 4.48000E-3,   9.26200,14782.00,    0.00,    0.00,  0.00000, -3.80000,  0.00000, -3.80000,1,1, 187.00,   1,0.5000,   1,0.5000
     9,    10,'1 ', 8.00000E-5, 2.91000E-3,   6.28420,17269.90,    0.00,    0.00,  0.00000,  0.00000,  0.00000, -4.80000,1,2, 126.00,   1,0.5000,   1,0.5000
     9,    10,'2 ', 8.00000E-5, 2.91000E-3,   6.28420,17269.90,    0.00,    0.00,  0.00000, -4.80000,  0.00000,  0.00000,1,2, 126.00,   1,0.5000,   1,0.5000
     9,    48,'1 ', 2.00000E-5, 7.60000E-4,   1.64590,17269.90,    0.00,    0.00,  0.00000,  0.00000,  0.00000,  0.00000,1,2,  33.00,   1,0.5000,   1,0.5000
     9,    48,'2 ', 2.00000E-5, 7.60000E-4,   1.64590,17269.90,    0.00,    0.00,  0.00000,  0.00000,  0.00000,  0.00000,1,2,  33.00,   1,0.5000,   1,0.5000
    10,    57,'1 ', 3.00000E-5, 1.22000E-3,   2.64340,17269.90,    0.00,    0.00,  0.00000,  0.00000,  0.00000,  0.00000,1,2,  53.00,   1,0.5000,   1,0.5000
    10,    57,'2 ', 3.00000E-5, 1.22000E-3,   2.64340,17269.90,    0.00,    0.00,  0.00000,  0.00000,  0.00000,  0.00000,1,2,  53.00,   1,0.5000,   1,0.5000
    11,    21,'1 ', 1.00000E-3, 1.09900E-2,   1.35962,    0.00,    0.00,    0.00,  0.00000,  0.00000,  0.00000,  0.00000,1,1,   1.00,   1,0.5000,   1,0.5000
    11,    21,'2 ', 9.70000E-4, 1.10300E-2,   1.35962,    0.00,    0.00,    0.00,  0.00000,  0.00000,  0.00000,  0.00000,1,1,   1.00,   1,0.5000,   1,0.5000
    12,    16,'1 ', 2.20000E-4, 4.98000E-3,   0.57626, 3964.66,    0.00,    0.00,  0.00000,  0.00000,  0.00000,  0.00000,1,1,  50.00,   1,0.5000,   1,0.5000
    12,    16,'2 ', 2.20000E-4, 4.98000E-3,   0.57626, 3964.66,    0.00,    0.00,  0.00000,  0.00000,  0.00000,  0.00000,1,1,  50.00,   1,0.5000,   1,0.5000
    12,    20,'1 ', 2.70000E-4, 6.17000E-3,   0.71456, 3964.66,    0.00,    0.00,  0.00000,  0.00000,  0.00000,  0.00000,1,1,  62.00,   1,0.5000,   1,0.5000
    12,    20,'2 ', 2.70000E-4, 6.17000E-3,   0.71456, 3964.66,    0.00,    0.00,  0.00000,  0.00000,  0.00000,  0.00000,1,1,  62.00,   1,0.5000,   1,0.5000
    12,    27,'1 ', 2.90000E-4, 6.47000E-3,   0.74914, 3964.66,    0.00,    0.00,  0.00000,  0.00000,  0.00000,  0.00000,1,1,  65.00,   1,0.5000,   1,0.5000
    12,    27,'2 ', 2.90000E-4, 6.47000E-3,   0.74914, 3964.66,    0.00,    0.00,  0.00000,  0.00000,  0.00000,  0.00000,1,1,  65.00,   1,0.5000,   1,0.5000
    12,    90,'1 ', 2.80000E-4, 6.27000E-3,   0.72608, 3964.66,    0.00,    0.00,  0.00000,  0.00000,  0.00000,  0.00000,1,1,  63.00,   1,0.5000,   1,0.5000
    12,    90,'2 ', 2.80000E-4, 6.27000E-3,   0.72608, 3964.66,    0.00,    0.00,  0.00000,  0.00000,  0.00000,  0.00000,1,1,  63.00,   1,0.5000,   1,0.5000
    13,    26,'1 ', 1.20000E-4, 1.83000E-3,   0.20838, 3106.26,    0.00,    0.00,  0.00000,  0.00000,  0.00000,  0.00000,1,2,  18.00,   1,0.5000,   1,0.5000
    13,    27,'1 ', 1.50000E-4, 3.49000E-3,   0.40338, 3964.66,    0.00,    0.00,  0.00000,  0.00000,  0.00000,  0.00000,1,2,  35.00,   1,0.5000,   1,0.5000
    13,    63,'1 ', 6.80000E-4, 7.40000E-3,   0.72180,    0.00,    0.00,    0.00,  0.00000,  0.00000,  0.00000,  0.00000,1,1,   1.00,   1,0.5000,   1,0.5000
    13,    63,'2 ', 7.30000E-4, 7.48000E-3,   0.57848,    0.00,    0.00,    0.00,  0.00000,  0.00000,  0.00000,  0.00000,1,1,   1.00,   1,0.5000,   1,0.5000
    14,    15,'1 ', 3.80000E-4, 3.78000E-3,   0.00000,    0.00,    0.00,    0.00,  0.00000,  0.00000,  0.00000,  0.00000,1,1,   1.00,   1,0.5000,   1,0.5000
    14,    17,'1 ', 2.90000E-4, 3.05000E-3,   0.33796, 2582.49,    0.00,    0.00,  0.00000,  0.00000,  0.00000,  0.00000,1,2,  30.00,   1,0.5000,   1,0.5000
    15,    16,'1 ', 9.30000E-4, 9.17000E-3,   1.01076, 2582.49,    0.00,    0.00,  0.00000,  0.00000,  0.00000,  0.00000,1,1,  90.00,   1,0.5000,   1,0.5000
    15,    18,'1 ', 2.00000E-4, 4.48000E-3,   0.51864, 3964.66,    0.00,    0.00,  0.00000,  0.00000,  0.00000,  0.00000,1,1,  45.00,   1,0.5000,   1,0.5000
    15,    18,'2 ', 2.00000E-4, 4.48000E-3,   0.51864, 3964.66,    0.00,    0.00,  0.00000,  0.00000,  0.00000,  0.00000,1,1,  45.00,   1,0.5000,   1,0.5000
    16,    91,'1 ', 9.90000E-4, 1.49700E-2,   1.71560, 3073.52,    0.00,    0.00,  0.00000,  0.00000,  0.00000,  0.00000,1,2,   0.00,   1,0.5000,   1,0.5000
    17,    18,'1 ', 5.60000E-4, 5.60000E-3,   0.61830, 2582.49,    0.00,    0.00,  0.00000,  0.00000,  0.00000,  0.00000,1,1,  55.00,   1,0.5000,   1,0.5000
    17,    19,'1 ', 2.20000E-4, 4.98000E-3,   0.57626, 3964.66,    0.00,    0.00,  0.00000,  0.00000,  0.00000,  0.00000,1,2,  50.00,   1,0.5000,   1,0.5000
    18,    20,'1 ', 3.20000E-4, 3.44000E-3,   0.42028,    0.00,    0.00,    0.00,  0.00000,  0.00000,  0.00000,  0.00000,1,1,   1.00,   1,0.5000,   1,0.5000
    19,    20,'1 ', 5.10000E-4, 1.14500E-2,   1.32540, 3964.66,    0.00,    0.00,  0.00000,  0.00000,  0.00000,  0.00000,1,1, 115.00,   1,0.5000,   1,0.5000
    19,    21,'1 ', 2.40000E-4, 5.48000E-3,   0.63388, 3964.66,    0.00,    0.00,  0.00000,  0.00000,  0.00000,  0.00000,1,2,  55.00,   1,0.5000,   1,0.5000
    20,    21,'1 ', 7.40000E-4, 1.14500E-2,   1.24272, 3106.26,    0.00,    0.00,  0.00000,  0.00000,  0.00000,  0.00000,1,2, 113.00,   1,0.5000,   1,0.5000
    20,    26,'1 ', 5.80000E-4, 6.64000E-3,   0.72672, 2582.49,    0.00,    0.00,  0.00000,  0.00000,  0.00000,  0.00000,1,2,   0.00,   1,0.5000,   1,0.5000
    21,    22,'1 ', 1.30000E-4, 1.32000E-3,   0.14574,    0.00,    0.00,    0.00,  0.00000,  0.00000,  0.00000,  0.00000,1,2,   1.00,   1,0.5000,   1,0.5000
    21,    25,'1 ', 5.40000E-4, 7.96000E-3,   1.15366,    0.00,    0.00,    0.00,  0.00000,  0.00000,  0.00000,  0.00000,1,1,   1.00,   1,0.5000,   1,0.5000
    22,    23,'1 ', 2.20000E-4, 4.98000E-3,   0.57626, 3964.66,    0.00,    0.00,  0.00000,  0.00000,  0.00000,  0.00000,1,1,  50.00,   1,0.5000,   1,0.5000
    22,    23,'2 ', 2.20000E-4, 4.98000E-3,   0.57626, 3964.66,    0.00,    0.00,  0.00000,  0.00000,  0.00000,  0.00000,1,1,  50.00,   1,0.5000,   1,0.5000
    22,    24,'1 ', 4.80000E-4, 7.11000E-3,   0.76468, 3106.26,    0.00,    0.00,  0.00000,  0.00000,  0.00000,  0.00000,1,1,  70.00,   1,0.5000,   1,0.5000
    23,    24,'1 ', 3.30000E-4, 7.47000E-3,   0.86438, 3964.66,    0.00,    0.00,  0.00000,  0.00000,  0.00000,  0.00000,1,1,  75.00,   1,0.5000,   1,0.5000
    23,    24,'2 ', 3.30000E-4, 7.47000E-3,   0.86438, 3964.66,    0.00,    0.00,  0.00000,  0.00000,  0.00000,  0.00000,1,1,  75.00,   1,0.5000,   1,0.5000
    24,    25,'1 ', 3.30000E-4, 5.07000E-3,   0.54820, 3106.26,    0.00,    0.00,  0.00000,  0.00000,  0.00000,  0.00000,1,1,  50.00,   1,0.5000,   1,0.5000
    25,    26,'1 ', 4.20000E-4, 6.49000E-3,   0.74094, 3106.26,    0.00,    0.00,  0.00000,  0.00000,  0.00000,  0.00000,1,2,  64.00,   1,0.5000,   1,0.5000
    25,    26,'2 ', 3.80000E-4, 5.88000E-3,   0.67148, 3106.26,    0.00,    0.00,  0.00000,  0.00000,  0.00000,  0.00000,1,2,  58.00,   1,0.5000,   1,0.5000
    27,    34,'1 ', 4.80000E-4, 1.09600E-2,   1.26776, 3964.66,    0.00,    0.00,  0.00000,  0.00000,  0.00000,  0.00000,1,1, 110.00,   1,0.5000,   1,0.5000
    28,    31,'1 ', 5.00000E-5, 9.90000E-4,   0.12676, 4317.48,    0.00,    0.00,  0.00000,  0.00000,  0.00000,  0.00000,1,1,   0.40,   1,0.5000,   1,0.5000
    28,    31,'2 ', 5.00000E-5, 9.90000E-4,   0.12676, 4317.48,    0.00,    0.00,  0.00000,  0.00000,  0.00000,  0.00000,1,1,   0.40,   1,0.5000,   1,0.5000
    29,    30,'1 ', 4.00000E-5, 1.00000E-3,   0.11526, 3964.66,    0.00,    0.00,  0.00000,  0.00000,  0.00000,  0.00000,1,1,  10.00,   1,0.5000,   1,0.5000
    29,    30,'2 ', 4.00000E-5, 1.00000E-3,   0.11526, 3964.66,    0.00,    0.00,  0.00000,  0.00000,  0.00000,  0.00000,1,1,  10.00,   1,0.5000,   1,0.5000
    29,    37,'1 ', 2.60000E-4, 5.98000E-3,   0.69150, 3964.66,    0.00,    0.00,  0.00000,  0.00000,  0.00000,  0.00000,1,2,  60.00,   1,0.5000,   1,0.5000
    29,    37,'2 ', 2.60000E-4, 5.98000E-3,   0.69150, 3964.66,    0.00,    0.00,  0.00000,  0.00000,  0.00000,  0.00000,1,2,  60.00,   1,0.5000,   1,0.5000
    29,    46,'1 ', 3.20000E-4, 7.17000E-3,   0.82982, 3964.66,    0.00,    0.00,  0.00000,  0.00000,  0.00000,  0.00000,1,1,  72.00,   1,0.5000,   1,0.5000
    29,    46,'2 ', 3.20000E-4, 7.17000E-3,   0.82982, 3964.66,    0.00,    0.00,  0.00000,  0.00000,  0.00000,  0.00000,1,1,  72.00,   1,0.5000,   1,0.5000
    30,    42,'1 ', 3.70000E-4, 8.47000E-3,   0.97964, 3964.66,    0.00,    0.00,  0.00000,  0.00000,  0.00000,  0.00000,1,2,  85.00,   1,0.5000,   1,0.5000
    30,    42,'2 ', 3.70000E-4, 8.47000E-3,   0.97964, 3964.66,    0.00,    0.00,  0.00000,  0.00000,  0.00000,  0.00000,1,2,  85.00,   1,0.5000,   1,0.5000
    30,    54,'1 ', 8.10000E-4, 1.13300E-2,   1.25392,    0.00,    0.00,    0.00,  0.00000,  0.00000,  0.00000,  0.00000,1,1, 112.00,   1,0.5000,   1,0.5000
    31,    32,'1 ', 4.40000E-4, 6.24000E-3,   0.66242, 3106.26,    0.00,    0.00,  0.00000,  0.00000,  0.00000,  0.00000,1,1,  61.20,   1,0.5000,   1,0.5000
    31,    32,'2 ', 4.40000E-4, 6.12000E-3,   0.64942, 3106.26,    0.00,    0.00,  0.00000,  0.00000,  0.00000,  0.00000,1,1,  60.00,   1,0.5000,   1,0.5000
    31,    40,'1 ', 4.20000E-4, 5.87000E-3,   0.62344, 3106.26,    0.00,    0.00,  0.00000,  0.00000,  0.00000,  0.00000,1,1,  57.60,   1,0.5000,   1,0.5000
    32,    33,'1 ', 6.30000E-4, 7.78000E-3,   1.64548, 3873.73,    0.00,    0.00,  0.00000,  0.00000,  0.00000,  0.00000,1,1, 107.00,   1,0.5000,   1,0.5000
    32,    34,'1 ', 1.17000E-3, 1.10500E-2,   2.28960,    0.00,    0.00,    0.00,  0.00000,  0.00000,  0.00000,  0.00000,1,1,   1.00,   1,0.5000,   1,0.5000
    32,    40,'1 ', 3.50000E-4, 4.87000E-3,   0.53956,    0.00,    0.00,    0.00,  0.00000,  0.00000,  0.00000,  0.00000,1,2,  48.00,   1,0.5000,   1,0.5000
    32,    44,'1 ', 3.90000E-4, 3.95000E-3,   0.82774,    0.00,    0.00,    0.00,  0.00000,  0.00000,  0.00000,  0.00000,1,1,  54.10,   1,0.5000,   1,0.5000
    33,    34,'1 ', 2.90000E-4, 3.64000E-3,   0.76892, 3873.73,    0.00,    0.00,  0.00000,  0.00000,  0.00000,  0.00000,1,1,  50.00,   1,0.5000,   1,0.5000
    34,    35,'1 ', 7.30000E-4, 1.02600E-2,   1.13596,    0.00,    0.00,    0.00,  0.00000,  0.00000,  0.00000,  0.00000,1,1, 101.00,   1,0.5000,   1,0.5000
    34,    35,'2 ', 7.30000E-4, 1.01600E-2,   1.12470,    0.00,    0.00,    0.00,  0.00000,  0.00000,  0.00000,  0.00000,1,1, 100.00,   1,0.5000,   1,0.5000
    34,    36,'1 ', 4.20000E-4, 5.91000E-3,   0.62778, 3106.26,    0.00,    0.00,  0.00000,  0.00000,  0.00000,  0.00000,1,1,  58.00,   1,0.5000,   1,0.5000
    34,    44,'1 ', 7.30000E-4, 9.50000E-3,   1.17858,    0.00,    0.00,    0.00,  0.00000,  0.00000,  0.00000,  0.00000,1,2,   1.00,   1,0.5000,   1,0.5000
    34,    44,'2 ', 7.30000E-4, 9.50000E-3,   1.17858,    0.00,    0.00,    0.00,  0.00000,  0.00000,  0.00000,  0.00000,1,2,   1.00,   1,0.5000,   1,0.5000
    35,    65,'1 ', 2.90000E-4, 4.08000E-3,   0.43296, 3106.26,    0.00,    0.00,  0.00000,  0.00000,  0.00000,  0.00000,1,2,  40.00,   1,0.5000,   1,0.5000
    35,    65,'2 ', 2.90000E-4, 4.08000E-3,   0.43296, 3106.26,    0.00,    0.00,  0.00000,  0.00000,  0.00000,  0.00000,1,2,  40.00,   1,0.5000,   1,0.5000
    35,    84,'1 ', 7.10000E-4, 1.17700E-2,   1.39484, 3073.52,    0.00,    0.00,  0.00000,  0.00000,  0.00000,  0.00000,1,2,   0.00,   1,0.5000,   1,0.5000
    37,    38,'1 ', 4.50000E-4, 7.19000E-3,   0.82172, 3106.26,    0.00,    0.00,  0.00000,  0.00000,  0.00000,  0.00000,1,1,  71.00,   1,0.5000,   1,0.5000
    38,    39,'1 ', 2.40000E-4, 3.30000E-3,   0.35070, 3106.26,    0.00,    0.00,  0.00000,  0.00000,  0.00000,  0.00000,1,2,  32.40,   1,0.5000,   1,0.5000
    38,    39,'2 ', 2.40000E-4, 3.30000E-3,   0.35070, 3106.26,    0.00,    0.00,  0.00000,  0.00000,  0.00000,  0.00000,1,2,  32.40,   1,0.5000,   1,0.5000
    38,    55,'1 ', 4.30000E-4, 9.76000E-3,   1.12946, 3964.66,    0.00,    0.00,  0.00000,  0.00000,  0.00000,  0.00000,1,1,  98.00,   1,0.5000,   1,0.5000
    38,    67,'1 ', 4.40000E-4, 6.12000E-3,   0.64942, 3106.26,    0.00,    0.00,  0.00000,  0.00000,  0.00000,  0.00000,1,1,  60.00,   1,0.5000,   1,0.5000
    40,    41,'1 ', 2.60000E-4, 5.88000E-3,   0.67998, 3964.66,    0.00,    0.00,  0.00000,  0.00000,  0.00000,  0.00000,1,1,  59.00,   1,0.5000,   1,0.5000
    40,    41,'2 ', 2.60000E-4, 5.88000E-3,   0.67998, 3964.66,    0.00,    0.00,  0.00000,  0.00000,  0.00000,  0.00000,1,1,  59.00,   1,0.5000,   1,0.5000
    41,    42,'1 ', 4.60000E-4, 6.52000E-3,   0.69272, 3106.26,    0.00,    0.00,  0.00000,  0.00000,  0.00000,  0.00000,1,2,  64.00,   1,0.5000,   1,0.5000
    42,    43,'1 ', 1.80000E-4, 4.06000E-3,   0.47022, 3964.66,    0.00,    0.00,  0.00000,  0.00000,  0.00000,  0.00000,1,1,  40.80,   1,0.5000,   1,0.5000
    42,    44,'1 ', 4.20000E-4, 7.43000E-3,   0.82664, 3106.26,    0.00,    0.00,  0.00000,  0.00000,  0.00000,  0.00000,1,1,  73.80,   1,0.5000,   1,0.5000
    43,    44,'1 ', 3.30000E-4, 3.51000E-3,   0.45246,    0.00,    0.00,    0.00,  0.00000,  0.00000,  0.00000,  0.00000,1,1,   1.00,   1,0.5000,   1,0.5000
    44,    45,'1 ', 9.00000E-5, 1.38000E-3,   0.16184,    0.00,    0.00,    0.00,  0.00000,  0.00000,  0.00000,  0.00000,1,2,   1.00,   1,0.5000,   1,0.5000
    44,    45,'2 ', 9.00000E-5, 1.38000E-3,   0.16184,    0.00,    0.00,    0.00,  0.00000,  0.00000,  0.00000,  0.00000,1,2,   1.00,   1,0.5000,   1,0.5000
    46,    53,'1 ', 2.70000E-4, 6.21000E-3,   0.71916, 3964.66,    0.00,    0.00,  0.00000,  0.00000,  0.00000,  0.00000,1,1,  62.40,   1,0.5000,   1,0.5000
    46,    53,'2 ', 2.70000E-4, 6.21000E-3,   0.71916, 3964.66,    0.00,    0.00,  0.00000,  0.00000,  0.00000,  0.00000,1,1,  62.40,   1,0.5000,   1,0.5000
    49,    50,'1 ', 1.50000E-4, 3.29000E-3,   0.42254, 4317.48,    0.00,    0.00,  0.00000,  0.00000,  0.00000,  0.00000,1,1,   0.00,   1,0.5000,   1,0.5000
    49,    50,'2 ', 1.50000E-4, 3.29000E-3,   0.42254, 4317.48,    0.00,    0.00,  0.00000,  0.00000,  0.00000,  0.00000,1,1,   0.00,   1,0.5000,   1,0.5000
    49,    51,'1 ', 2.60000E-4, 5.64000E-3,   0.72434, 4317.48,    0.00,    0.00,  0.00000,  0.00000,  0.00000,  0.00000,1,1,   0.00,   1,0.5000,   1,0.5000
    49,    51,'2 ', 2.60000E-4, 5.64000E-3,   0.72434, 4317.48,    0.00,    0.00,  0.00000,  0.00000,  0.00000,  0.00000,1,1,   0.00,   1,0.5000,   1,0.5000
    50,    54,'1 ', 7.40000E-4, 9.81000E-3,   1.36656,    0.00,    0.00,    0.00,  0.00000,  0.00000,  0.00000,  0.00000,1,2,   1.00,   1,0.5000,   1,0.5000
    50,    55,'1 ', 4.90000E-4, 7.89000E-3,   0.86390, 3106.26,    0.00,    0.00,  0.00000,  0.00000,  0.00000,  0.00000,1,2,  78.00,   1,0.5000,   1,0.5000
    50,    69,'1 ', 7.60000E-4, 9.15900E-3,   0.93800, 3073.52,    0.00,    0.00,  0.00000,  0.00000,  0.00000,  0.00000,1,2,   0.40,   1,0.5000,   1,0.5000
    50,    69,'2 ', 7.68000E-4, 9.25800E-3,   0.94800, 3073.52,    0.00,    0.00,  0.00000,  0.00000,  0.00000,  0.00000,1,2,   0.40,   1,0.5000,   1,0.5000
    51,    52,'1 ', 2.50000E-4, 5.74000E-3,   0.66384, 3964.66,    0.00,    0.00,  0.00000,  0.00000,  0.00000,  0.00000,1,2,  57.60,   1,0.5000,   1,0.5000
    51,    52,'2 ', 2.50000E-4, 5.74000E-3,   0.66384, 3964.66,    0.00,    0.00,  0.00000,  0.00000,  0.00000,  0.00000,1,2,  57.60,   1,0.5000,   1,0.5000
    52,    53,'1 ', 3.50000E-4, 7.89000E-3,   0.91280, 3964.66,    0.00,    0.00,  0.00000,  0.00000,  0.00000,  0.00000,1,1,  79.20,   1,0.5000,   1,0.5000
    52,    53,'2 ', 3.50000E-4, 7.89000E-3,   0.91280, 3964.66,    0.00,    0.00,  0.00000,  0.00000,  0.00000,  0.00000,1,1,  79.20,   1,0.5000,   1,0.5000
    52,    55,'1 ', 3.30000E-4, 7.53000E-3,   0.87130, 3964.66,    0.00,    0.00,  0.00000,  0.00000,  0.00000,  0.00000,1,2,  75.60,   1,0.5000,   1,0.5000
    52,    55,'2 ', 3.30000E-4, 7.53000E-3,   0.87130, 3964.66,    0.00,    0.00,  0.00000,  0.00000,  0.00000,  0.00000,1,2,  75.60,   1,0.5000,   1,0.5000
    53,    54,'1 ', 3.30000E-4, 7.57000E-3,   0.87592, 3964.66,    0.00,    0.00,  0.00000,  0.00000,  0.00000,  0.00000,1,2,  76.00,   1,0.5000,   1,0.5000
    53,    54,'2 ', 3.30000E-4, 7.57000E-3,   0.87592, 3964.66,    0.00,    0.00,  0.00000,  0.00000,  0.00000,  0.00000,1,2,  76.00,   1,0.5000,   1,0.5000
    54,    55,'1 ', 4.60000E-4, 7.58000E-3,   0.83142, 3106.26,    0.00,    0.00,  0.00000,  0.00000,  0.00000,  0.00000,1,2,  75.00,   1,0.5000,   1,0.5000
    54,    56,'1 ', 2.30000E-4, 3.26000E-3,   0.34636, 3106.26,    0.00,    0.00,  0.00000,  0.00000,  0.00000,  0.00000,1,1,  32.00,   1,0.5000,   1,0.5000
    54,    56,'2 ', 2.30000E-4, 3.26000E-3,   0.34636, 3106.26,    0.00,    0.00,  0.00000,  0.00000,  0.00000,  0.00000,1,1,  32.00,   1,0.5000,   1,0.5000
    55,    68,'1 ', 5.50000E-4, 1.23500E-2,   1.42912, 3964.66,    0.00,    0.00,  0.00000,  0.00000,  0.00000,  0.00000,1,1, 124.00,   1,0.5000,   1,0.5000
    59,    66,'1 ', 7.00000E-5, 1.49000E-3,   0.17288, 3964.66,    0.00,    0.00,  0.00000,  0.00000,  0.00000,  0.00000,1,2,  15.00,   1,0.5000,   1,0.5000
    59,    66,'2 ', 7.00000E-5, 1.49000E-3,   0.17288, 3964.66,    0.00,    0.00,  0.00000,  0.00000,  0.00000,  0.00000,1,2,  15.00,   1,0.5000,   1,0.5000
    59,    67,'1 ', 5.10000E-4, 7.14000E-3,   0.75766, 3106.26,    0.00,    0.00,  0.00000,  0.00000,  0.00000,  0.00000,1,2,  70.00,   1,0.5000,   1,0.5000
    59,    67,'2 ', 5.10000E-4, 7.14000E-3,   0.75766, 3106.26,    0.00,    0.00,  0.00000,  0.00000,  0.00000,  0.00000,1,2,  70.00,   1,0.5000,   1,0.5000
    59,    68,'1 ', 2.20000E-4, 4.98000E-3,   0.57626, 3964.66,    0.00,    0.00,  0.00000,  0.00000,  0.00000,  0.00000,1,1,  50.00,   1,0.5000,   1,0.5000
    59,    68,'2 ', 2.20000E-4, 4.98000E-3,   0.57626, 3964.66,    0.00,    0.00,  0.00000,  0.00000,  0.00000,  0.00000,1,1,  50.00,   1,0.5000,   1,0.5000
    59,    82,'1 ', 2.20000E-4, 4.98000E-3,   0.57626, 3964.66,    0.00,    0.00,  0.00000,  0.00000,  0.00000,  0.00000,1,1,  50.00,   1,0.5000,   1,0.5000
    59,    82,'2 ', 2.20000E-4, 4.98000E-3,   0.57626, 3964.66,    0.00,    0.00,  0.00000,  0.00000,  0.00000,  0.00000,1,1,  50.00,   1,0.5000,   1,0.5000
    60,    62,'1 ', 5.90000E-4, 9.13000E-3,   1.04194, 3106.26,    0.00,    0.00,  0.00000,  0.00000,  0.00000,  0.00000,1,2,  90.00,   1,0.5000,   1,0.5000
    60,    64,'2 ', 4.80000E-4, 6.73000E-3,   0.71436, 3106.26,    0.00,    0.00,  0.00000,  0.00000,  0.00000,  0.00000,1,2,  66.00,   1,0.5000,   1,0.5000
    60,    66,'1 ', 3.70000E-4, 8.47000E-3,   0.97964, 3964.66,    0.00,    0.00,  0.00000,  0.00000,  0.00000,  0.00000,1,1,  85.00,   1,0.5000,   1,0.5000
    60,    76,'1 ', 6.90000E-4, 6.12000E-3,   0.74820,    0.00,    0.00,    0.00,  0.00000,  0.00000,  0.00000,  0.00000,1,1,   1.00,   1,0.5000,   1,0.5000
    60,    82,'1 ', 3.50000E-4, 7.97000E-3,   0.92202, 3964.66,    0.00,    0.00,  0.00000,  0.00000,  0.00000,  0.00000,1,1,  80.00,   1,0.5000,   1,0.5000
    61,    62,'1 ', 7.00000E-5, 1.49000E-3,   0.17288, 3964.66,    0.00,    0.00,  0.00000,  0.00000,  0.00000,  0.00000,1,1,  15.00,   1,0.5000,   1,0.5000
    61,    62,'2 ', 7.00000E-5, 1.49000E-3,   0.17288, 3964.66,    0.00,    0.00,  0.00000,  0.00000,  0.00000,  0.00000,1,2,  15.00,   1,0.5000,   1,0.5000
    61,    63,'1 ', 2.10000E-4, 4.78000E-3,   0.55320, 3964.66,    0.00,    0.00,  0.00000,  0.00000,  0.00000,  0.00000,1,1,  48.00,   1,0.5000,   1,0.5000
    61,    64,'1 ', 9.00000E-5, 1.99000E-3,   0.23050, 3964.66,    0.00,    0.00,  0.00000,  0.00000,  0.00000,  0.00000,1,1,  20.00,   1,0.5000,   1,0.5000
    61,    64,'2 ', 9.00000E-5, 1.99000E-3,   0.23050, 3964.66,    0.00,    0.00,  0.00000,  0.00000,  0.00000,  0.00000,1,1,  20.00,   1,0.5000,   1,0.5000
    61,    64,'3 ', 9.00000E-5, 1.99000E-3,   0.23050, 3964.66,    0.00,    0.00,  0.00000,  0.00000,  0.00000,  0.00000,1,1,  20.00,   1,0.5000,   1,0.5000
    62,    63,'2 ', 4.00000E-4, 4.13000E-3,   0.45084, 2582.49,    0.00,    0.00,  0.00000,  0.00000,  0.00000,  0.00000,1,2,  40.50,   1,0.5000,   1,0.5000
    64,    65,'1 ', 2.90000E-4, 4.08000E-3,   0.43296, 3106.26,    0.00,    0.00,  0.00000,  0.00000,  0.00000,  0.00000,1,2,  40.00,   1,0.5000,   1,0.5000
    65,    66,'1 ', 4.80000E-4, 1.09600E-2,   1.26776, 3964.66,    0.00,    0.00,  0.00000,  0.00000,  0.00000,  0.00000,1,1, 110.00,   1,0.5000,   1,0.5000
    67,    68,'1 ', 5.80000E-4, 8.16000E-3,   0.86590, 3106.26,    0.00,    0.00,  0.00000,  0.00000,  0.00000,  0.00000,1,2,  80.00,   1,0.5000,   1,0.5000
    68,    69,'1 ', 2.50000E-4, 5.74000E-3,   0.66384, 3964.66,    0.00,    0.00,  0.00000,  0.00000,  0.00000,  0.00000,1,1,  57.60,   1,0.5000,   1,0.5000
    68,    69,'2 ', 4.10000E-4, 5.32000E-3,   0.77900,    0.00,    0.00,    0.00,  0.00000,  0.00000,  0.00000,  0.00000,1,1,   1.00,   1,0.5000,   1,0.5000
    69,    81,'1 ', 3.00000E-4, 4.16000E-3,   0.46106,    0.00,    0.00,    0.00,  0.00000,  0.00000,  0.00000,  0.00000,1,1,  41.00,   1,0.5000,   1,0.5000
    69,    81,'2 ', 3.10000E-4, 4.27000E-3,   0.47232,    0.00,    0.00,    0.00,  0.00000,  0.00000,  0.00000,  0.00000,1,1,  42.00,   1,0.5000,   1,0.5000
    70,    71,'1 ', 2.30000E-4, 4.92000E-3,   0.55662,    0.00,    0.00,    0.00,  0.00000,  0.00000,  0.00000,  0.00000,1,2,  50.00,   1,0.5000,   1,0.5000
    70,    71,'2 ', 2.30000E-4, 4.92000E-3,   0.55662,    0.00,    0.00,    0.00,  0.00000,  0.00000,  0.00000,  0.00000,1,2,  50.00,   1,0.5000,   1,0.5000
    71,    72,'1 ', 6.60000E-4, 9.84000E-3,   1.19512,    0.00,    0.00,    0.00,  0.00000,  0.00000,  0.00000,  0.00000,1,2,   1.00,   1,0.5000,   1,0.5000
    71,    76,'1 ', 4.40000E-4, 6.15000E-3,   0.68036,    0.00,    0.00,    0.00,  0.00000,  0.00000,  0.00000,  0.00000,1,2,  60.50,   1,0.5000,   1,0.5000
    71,    92,'1 ', 7.50000E-4, 9.57000E-3,   1.22056,    0.00,    0.00,    0.00,  0.00000,  0.00000,  0.00000,  0.00000,1,2,   1.00,   1,0.5000,   1,0.5000
    71,    92,'2 ', 7.50000E-4, 9.57000E-3,   1.22056,    0.00,    0.00,    0.00,  0.00000,  0.00000,  0.00000,  0.00000,1,2,   1.00,   1,0.5000,   1,0.5000
    72,    73,'1 ', 4.90000E-4, 6.81000E-3,   0.75346,    0.00,    0.00,    0.00,  0.00000,  0.00000,  0.00000,  0.00000,1,2,  67.00,   1,0.5000,   1,0.5000
    72,    73,'2 ', 4.90000E-4, 6.81000E-3,   0.75346,    0.00,    0.00,    0.00,  0.00000,  0.00000,  0.00000,  0.00000,1,2,  67.00,   1,0.5000,   1,0.5000
    72,    77,'1 ', 2.70000E-4, 7.54000E-3,   0.94326,    0.00,    0.00,    0.00,  0.00000,  0.00000,  0.00000,  0.00000,1,2,   1.00,   1,0.5000,   1,0.5000
    73,    74,'1 ', 5.00000E-4, 7.01000E-3,   0.77594,    0.00,    0.00,    0.00,  0.00000,  0.00000,  0.00000,  0.00000,1,2,  69.00,   1,0.5000,   1,0.5000
    73,    74,'2 ', 5.00000E-4, 7.01000E-3,   0.77594,    0.00,    0.00,    0.00,  0.00000,  0.00000,  0.00000,  0.00000,1,2,  69.00,   1,0.5000,   1,0.5000
    74,    75,'1 ', 1.00000E-4, 1.35000E-3,   0.14288, 3106.26,    0.00,    0.00,  0.00000,  0.00000,  0.00000,  0.00000,1,2,  13.20,   1,0.5000,   1,0.5000
    74,    75,'2 ', 1.00000E-4, 1.35000E-3,   0.14288, 3106.26,    0.00,    0.00,  0.00000,  0.00000,  0.00000,  0.00000,1,2,  13.20,   1,0.5000,   1,0.5000
    76,    77,'1 ', 1.04000E-3, 8.35000E-3,   1.09612,    0.00,    0.00,    0.00,  0.00000,  0.00000,  0.00000,  0.00000,1,1,   1.00,   1,0.5000,   1,0.5000
    76,    78,'1 ', 6.60000E-4, 1.49400E-2,   1.72878, 3964.66,    0.00,    0.00,  0.00000,  0.00000,  0.00000,  0.00000,1,1, 150.00,   1,0.5000,   1,0.5000
    76,    78,'2 ', 6.60000E-4, 1.49400E-2,   1.72878, 3964.66,    0.00,    0.00,  0.00000,  0.00000,  0.00000,  0.00000,1,1, 150.00,   1,0.5000,   1,0.5000
    76,    81,'1 ', 3.60000E-4, 4.30000E-3,   0.55710,    0.00,    0.00,    0.00,  0.00000,  0.00000,  0.00000,  0.00000,1,2,   1.00,   1,0.5000,   1,0.5000
    77,    78,'1 ', 2.40000E-4, 5.48000E-3,   0.63388, 3964.66,    0.00,    0.00,  0.00000,  0.00000,  0.00000,  0.00000,1,1,  55.00,   1,0.5000,   1,0.5000
    77,    78,'2 ', 2.40000E-4, 5.48000E-3,   0.63388, 3964.66,    0.00,    0.00,  0.00000,  0.00000,  0.00000,  0.00000,1,1,  55.00,   1,0.5000,   1,0.5000
    77,    80,'1 ', 6.80000E-4, 7.00000E-3,   0.87014,    0.00,    0.00,    0.00,  0.00000,  0.00000,  0.00000,  0.00000,1,2,   1.00,   1,0.5000,   1,0.5000
    78,    79,'1 ', 3.70000E-4, 8.47000E-3,   0.97964, 3964.66,    0.00,    0.00,  0.00000,  0.00000,  0.00000,  0.00000,1,1,  85.00,   1,0.5000,   1,0.5000
    78,    79,'2 ', 3.70000E-4, 8.47000E-3,   0.97964, 3964.66,    0.00,    0.00,  0.00000,  0.00000,  0.00000,  0.00000,1,1,  85.00,   1,0.5000,   1,0.5000
    79,    80,'1 ', 1.50000E-4, 3.49000E-3,   0.40338, 3964.66,    0.00,    0.00,  0.00000,  0.00000,  0.00000,  0.00000,1,2,  35.00,   1,0.5000,   1,0.5000
    79,    80,'2 ', 1.50000E-4, 3.49000E-3,   0.40338, 3964.66,    0.00,    0.00,  0.00000,  0.00000,  0.00000,  0.00000,1,2,  35.00,   1,0.5000,   1,0.5000
    80,    81,'1 ', 3.20000E-4, 4.47000E-3,   0.49482,    0.00,    0.00,    0.00,  0.00000,  0.00000,  0.00000,  0.00000,1,2,  44.00,   1,0.5000,   1,0.5000
    80,    81,'2 ', 3.10000E-4, 4.37000E-3,   0.48356,    0.00,    0.00,    0.00,  0.00000,  0.00000,  0.00000,  0.00000,1,2,  43.00,   1,0.5000,   1,0.5000
    80,    82,'1 ', 5.70000E-4, 9.35000E-3,   1.10132, 3073.52,    0.00,    0.00,  0.00000,  0.00000,  0.00000,  0.00000,1,2,   0.00,   1,0.5000,   1,0.5000
    81,    82,'1 ', 2.60000E-4, 5.98000E-3,   0.69150, 3964.66,    0.00,    0.00,  0.00000,  0.00000,  0.00000,  0.00000,1,2,  60.00,   1,0.5000,   1,0.5000
    83,    84,'1 ', 5.10000E-4, 1.11000E-2,   1.25632,    0.00,    0.00,    0.00,  0.00000,  0.00000,  0.00000,  0.00000,1,1, 113.00,   1,0.5000,   1,0.5000
    83,    84,'2 ', 5.10000E-4, 1.11000E-2,   1.25632,    0.00,    0.00,    0.00,  0.00000,  0.00000,  0.00000,  0.00000,1,1, 113.00,   1,0.5000,   1,0.5000
    84,    85,'1 ', 2.40000E-4, 5.48000E-3,   0.63388, 3964.66,    0.00,    0.00,  0.00000,  0.00000,  0.00000,  0.00000,1,1,  55.00,   1,0.5000,   1,0.5000
    84,    85,'2 ', 2.40000E-4, 5.48000E-3,   0.63388, 3964.66,    0.00,    0.00,  0.00000,  0.00000,  0.00000,  0.00000,1,1,  55.00,   1,0.5000,   1,0.5000
    84,    89,'1 ', 4.20000E-4, 5.91000E-3,   0.73270,    0.00,    0.00,    0.00,  0.00000,  0.00000,  0.00000,  0.00000,1,1,   1.00,   1,0.5000,   1,0.5000
    85,    86,'1 ', 2.20000E-4, 4.98000E-3,   0.57626, 3964.66,    0.00,    0.00,  0.00000,  0.00000,  0.00000,  0.00000,1,1,  50.00,   1,0.5000,   1,0.5000
    86,    87,'1 ', 1.30000E-4, 2.99000E-3,   0.34576, 3964.66,    0.00,    0.00,  0.00000,  0.00000,  0.00000,  0.00000,1,1,  30.00,   1,0.5000,   1,0.5000
    86,    87,'2 ', 1.30000E-4, 2.99000E-3,   0.34576, 3964.66,    0.00,    0.00,  0.00000,  0.00000,  0.00000,  0.00000,1,1,  30.00,   1,0.5000,   1,0.5000
    86,    88,'1 ', 2.20000E-4, 4.98000E-3,   0.57626, 3964.66,    0.00,    0.00,  0.00000,  0.00000,  0.00000,  0.00000,1,1,  50.00,   1,0.5000,   1,0.5000
    86,    88,'2 ', 2.20000E-4, 4.98000E-3,   0.57626, 3964.66,    0.00,    0.00,  0.00000,  0.00000,  0.00000,  0.00000,1,1,  50.00,   1,0.5000,   1,0.5000
    88,    89,'1 ', 1.80000E-4, 3.98000E-3,   0.46100, 3964.66,    0.00,    0.00,  0.00000,  0.00000,  0.00000,  0.00000,1,2,  40.00,   1,0.5000,   1,0.5000
    88,    91,'1 ', 3.30000E-4, 7.05000E-3,   0.90542, 4317.48,    0.00,    0.00,  0.00000,  0.00000,  0.00000,  0.00000,1,2,   0.40,   1,0.5000,   1,0.5000
    89,    90,'1 ', 3.50000E-4, 7.52000E-3,   0.96580, 4317.48,    0.00,    0.00,  0.00000,  0.00000,  0.00000,  0.00000,1,2,   0.40,   1,0.5000,   1,0.5000
    89,    91,'1 ', 2.50000E-4, 3.56000E-3,   0.39354, 3073.52,    0.00,    0.00,  0.00000,  0.00000,  0.00000,  0.00000,1,2,   0.40,   1,0.5000,   1,0.5000
    89,    91,'2 ', 2.50000E-4, 3.56000E-3,   0.39354, 3073.52,    0.00,    0.00,  0.00000,  0.00000,  0.00000,  0.00000,1,2,   0.40,   1,0.5000,   1,0.5000
    89,    92,'1 ', 4.80000E-4, 6.52000E-3,   0.81084,    0.00,    0.00,    0.00,  0.00000,  0.00000,  0.00000,  0.00000,1,1,   1.00,   1,0.5000,   1,0.5000
    90,    92,'1 ', 6.10000E-4, 1.31600E-2,   1.69014, 4317.48,    0.00,    0.00,  0.00000,  0.00000,  0.00000,  0.00000,1,1,   0.40,   1,0.5000,   1,0.5000
    92,    93,'1 ', 1.30000E-4, 2.99000E-3,   0.34576, 3964.66,    0.00,    0.00,  0.00000,  0.00000,  0.00000,  0.00000,1,2,  30.00,   1,0.5000,   1,0.5000
    92,    93,'2 ', 1.30000E-4, 2.99000E-3,   0.34576, 3964.66,    0.00,    0.00,  0.00000,  0.00000,  0.00000,  0.00000,1,2,  30.00,   1,0.5000,   1,0.5000
0 / END OF BRANCH DATA, BEGIN TRANSFORMER DATA
     2,   102,     0,'1 ',1,1,1, 0.00000E+0, 0.00000E+0,2,'            ',1,   1,1.0000,   0,1.0000,   0,1.0000,   0,1.0000,'            '
 0.00000E+0, 1.00000E-3,   100.00
1.00000,   0.000,   0.000,     0.00,     0.00,     0.00, 0,      0, 1.10000, 0.90000, 1.10000, 0.90000,  33, 0, 0.00000, 0.00000,  0.000
1.00000,   0.000
     4,   104,     0,'1 ',1,1,1, 0.00000E+0, 0.00000E+0,2,'            ',1,   1,1.0000,   0,1.0000,   0,1.0000,   0,1.0000,'            '
 0.00000E+0, 1.00000E-3,   100.00
1.00000,   0.000,   0.000,     0.00,     0.00,     0.00, 0,      0, 1.10000, 0.90000, 1.10000, 0.90000,  33, 0, 0.00000, 0.00000,  0.000
1.00000,   0.000
     5,   105,     0,'1 ',1,1,1, 0.00000E+0, 0.00000E+0,2,'            ',1,   1,1.0000,   0,1.0000,   0,1.0000,   0,1.0000,'            '
 0.00000E+0, 1.00000E-3,   100.00
1.00000,   0.000,   0.000,     0.00,     0.00,     0.00, 0,      0, 1.10000, 0.90000, 1.10000, 0.90000,  33, 0, 0.00000, 0.00000,  0.000
1.00000,   0.000
     6,    12,     0,'1 ',3,2,1, 1.75000E-3,-3.00000E-2,2,'            ',1,   1,1.0000,   0,1.0000,   0,1.0000,   0,1.0000,'            '
 0.00000E+0, 1.00000E-3,  3000.00
...